data/ENWL/enwl_kron_reduced/network_1/Feeder_2/Loads.txt
! Imported from Loads.txt, with modified neutral terminal
! -------------------------------------------------------------------------
New Load.LOAD1 Phases=1 Bus1=115.1 kV=0.23 kW=1.968  PF=0.95
New Load.LOAD2 Phases=1 Bus1=181.1 kV=0.23 kW=0.306  PF=0.95
New Load.LOAD3 Phases=1 Bus1=196.3 kV=0.23 kW=2.94  PF=0.95
New Load.LOAD4 Phases=1 Bus1=219.1 kV=0.23 kW=0.324  PF=0.95
New Load.LOAD5 Phases=1 Bus1=222.2 kV=0.23 kW=1.332  PF=0.95
New Load.LOAD6 Phases=1 Bus1=223.2 kV=0.23 kW=3.0540000000000003  PF=0.95
New Load.LOAD7 Phases=1 Bus1=232.3 kV=0.23 kW=2.0580000000000003  PF=0.95
New Load.LOAD8 Phases=1 Bus1=240.1 kV=0.23 kW=0.29400000000000004  PF=0.95
New Load.LOAD9 Phases=1 Bus1=271.2 kV=0.23 kW=0.312  PF=0.95
New Load.LOAD10 Phases=1 Bus1=278.1 kV=0.23 kW=0.27  PF=0.95
New Load.LOAD11 Phases=1 Bus1=279.1 kV=0.23 kW=0.33  PF=0.95
New Load.LOAD12 Phases=1 Bus1=284.1 kV=0.23 kW=0.33  PF=0.95
New Load.LOAD13 Phases=1 Bus1=317.2 kV=0.23 kW=0.246  PF=0.95
New Load.LOAD14 Phases=1 Bus1=326.1 kV=0.23 kW=2.04  PF=0.95
New Load.LOAD15 Phases=1 Bus1=327.1 kV=0.23 kW=0.8280000000000001  PF=0.95
New Load.LOAD16 Phases=1 Bus1=332.3 kV=0.23 kW=0.11399999999999999  PF=0.95
New Load.LOAD17 Phases=1 Bus1=345.3 kV=0.23 kW=0.28800000000000003  PF=0.95
New Load.LOAD18 Phases=1 Bus1=356.2 kV=0.23 kW=0.324  PF=0.95
New Load.LOAD19 Phases=1 Bus1=361.3 kV=0.23 kW=1.944  PF=0.95
New Load.LOAD20 Phases=1 Bus1=362.3 kV=0.23 kW=0.264  PF=0.95
New Load.LOAD21 Phases=1 Bus1=364.1 kV=0.23 kW=0.336  PF=0.95
New Load.LOAD22 Phases=1 Bus1=399.2 kV=0.23 kW=0.966  PF=0.95
New Load.LOAD23 Phases=1 Bus1=415.3 kV=0.23 kW=0.246  PF=0.95
New Load.LOAD24 Phases=1 Bus1=440.2 kV=0.23 kW=1.956  PF=0.95
New Load.LOAD25 Phases=1 Bus1=443.3 kV=0.23 kW=0.29400000000000004  PF=0.95
New Load.LOAD26 Phases=1 Bus1=455.2 kV=0.23 kW=0.336  PF=0.95
New Load.LOAD27 Phases=1 Bus1=456.2 kV=0.23 kW=0.27  PF=0.95
New Load.LOAD28 Phases=1 Bus1=461.2 kV=0.23 kW=0.276  PF=0.95
New Load.LOAD29 Phases=1 Bus1=469.1 kV=0.23 kW=0.34800000000000003  PF=0.95
New Load.LOAD30 Phases=1 Bus1=477.2 kV=0.23 kW=0.264  PF=0.95
New Load.LOAD31 Phases=1 Bus1=479.3 kV=0.23 kW=0.28200000000000003  PF=0.95
! -------------------------------------------------------------------------